Version 4
SHEET 1 880 952
WIRE -160 -32 -368 -32
WIRE 192 -32 128 -32
WIRE 336 -32 272 -32
WIRE -160 -16 -160 -32
WIRE -528 96 -528 -32
WIRE -160 96 -160 64
WIRE -48 96 -160 96
WIRE -160 128 -160 96
WIRE 128 128 128 -32
WIRE 128 128 96 128
WIRE 192 128 192 112
WIRE 208 128 192 128
WIRE 192 144 192 128
WIRE 208 144 208 128
WIRE 128 160 128 128
WIRE 176 160 128 160
WIRE 336 176 336 -32
WIRE 336 176 240 176
WIRE 576 176 336 176
WIRE 176 192 128 192
WIRE 16 224 -48 96
WIRE 128 224 128 192
WIRE 128 224 96 224
WIRE -160 240 -160 208
WIRE -64 240 16 128
WIRE -64 240 -160 240
WIRE 128 288 128 224
WIRE -528 304 -528 176
WIRE -368 304 -368 -32
WIRE -160 304 -160 240
WIRE 576 400 576 176
WIRE -176 480 -432 480
WIRE 208 544 208 208
WIRE 576 544 576 480
WIRE -528 592 -528 496
WIRE -336 640 -336 592
WIRE -320 640 -336 640
WIRE -336 672 -336 640
WIRE -320 672 -320 640
WIRE -432 688 -432 480
WIRE -352 688 -432 688
WIRE -176 704 -176 480
WIRE -176 704 -288 704
WIRE 128 704 128 368
WIRE 128 704 -176 704
WIRE -528 720 -528 672
WIRE -352 720 -528 720
WIRE -528 768 -528 720
WIRE -528 912 -528 848
WIRE -320 912 -320 736
FLAG -368 304 0
FLAG -160 304 0
FLAG -528 -32 3V3
IOPIN -528 -32 Out
FLAG -528 304 0
FLAG 192 112 3V3
IOPIN 192 112 In
FLAG -528 496 3V3
IOPIN -528 496 In
FLAG -528 912 0
FLAG -336 592 3V3
IOPIN -336 592 In
FLAG -320 912 0
FLAG 576 544 0
FLAG 208 544 0
SYMBOL OPA836 208 112 R0
SYMATTR InstName U1
SYMBOL res -176 112 R0
SYMATTR InstName R1
SYMATTR Value 50m
SYMBOL current -160 -16 R0
WINDOW 3 -34 -78 Left 2
WINDOW 123 0 0 Left 0
WINDOW 39 0 0 Left 0
SYMATTR InstName I1
SYMATTR Value PULSE(-5 5 300n 3n 3n 100n 200n 10)
SYMBOL res 112 112 R90
WINDOW 0 0 56 VBottom 2
WINDOW 3 32 56 VTop 2
SYMATTR InstName R2
SYMATTR Value 1000
SYMBOL res 112 208 R90
WINDOW 0 0 56 VBottom 2
WINDOW 3 32 56 VTop 2
SYMATTR InstName R3
SYMATTR Value 1000
SYMBOL res 288 -48 R90
WINDOW 0 0 56 VBottom 2
WINDOW 3 32 56 VTop 2
SYMATTR InstName R4
SYMATTR Value 6000
SYMBOL res 144 384 R180
WINDOW 0 36 76 Left 2
WINDOW 3 36 40 Left 2
SYMATTR InstName R5
SYMATTR Value 6000
SYMBOL voltage -528 80 R0
WINDOW 123 0 0 Left 0
WINDOW 39 0 0 Left 0
SYMATTR InstName V1
SYMATTR Value 3.3
SYMBOL res -544 576 R0
SYMATTR InstName R6
SYMATTR Value 5k
SYMBOL res -544 752 R0
SYMATTR InstName R7
SYMATTR Value 5k
SYMBOL OPA836 -320 640 R0
SYMATTR InstName U2
SYMBOL res 560 384 R0
SYMATTR InstName R8
SYMATTR Value 1000
TEXT -600 936 Left 2 !.tran 20u
